                               MODFLOW 6 EXTENDED
                U.S. GEOLOGICAL SURVEY MODULAR HYDROLOGIC MODEL
                            VERSION 6.5.0 05/23/2024

   MODFLOW 6 compiled May 23 2024 18:08:14 with Intel(R) Fortran Intel(R) 64
  Compiler Classic for applications running on Intel(R) 64, Version 2021.11.1
                             Build 20231117_000000

This software has been approved for release by the U.S. Geological 
Survey (USGS). Although the software has been subjected to rigorous 
review, the USGS reserves the right to update the software as needed 
pursuant to further analysis and review. No warranty, expressed or 
implied, is made by the USGS or the U.S. Government as to the 
functionality of the software and related material nor shall the 
fact of release constitute any such warranty. Furthermore, the 
software is released on condition that neither the USGS nor the U.S. 
Government shall be held liable for any damages resulting from its 
authorized or unauthorized use. Also refer to the USGS Water 
Resources Software User Rights Notice for complete use, copyright, 
and distribution information.


As a work of the United States Government, this USGS product is 
in the public domain within the United States. You can copy, 
modify, distribute, and perform the work, even for commercial 
purposes, all without asking permission. Additionally, USGS 
waives copyright and related rights in the work worldwide 
through CC0 1.0 Universal Public Domain Dedication 
(https://creativecommons.org/publicdomain/zero/1.0/).

The following GNU Lesser General Public License (LGPL) libraries
are used in this USGS product:

    SPARSKIT version 2.0
      ilut, luson, and qsplit 
      (https://www-users.cse.umn.edu/~saad/software/SPARSKIT/)

    RCM - Reverse Cuthill McKee Ordering
      (https://people.math.sc.edu/Burkardt/f_src/rcm/rcm.html)

    BLAS - Basic Linear Algebra Subprograms Level 1
      (https://people.math.sc.edu/Burkardt/f_src/blas1_d/blas1_d.html)

    SPARSEKIT - Sparse Matrix Utility Package
      amux, dperm, dvperm, rperm, and cperm
      (https://people.sc.fsu.edu/~jburkardt/f77_src/sparsekit/sparsekit.html)

The following BSD-3 License libraries are used in this USGS product:

    Modern Fortran DAG Library
      Copyright (c) 2018, Jacob Williams
      All rights reserved.
      (https://github.com/jacobwilliams/daglib)

The following 2-clause BSD License library is used in this
USGS product:

    PETSc, the Portable, Extensible Toolkit for Scientific
    Computation Library
      Copyright (c) 1991-2021, UChicago Argonne, LLC
      and the PETSc Development Team All rights reserved.
      (https://petsc.org/release/)

MODFLOW 6 compiler options: /Isrc\libmf6core.a.p /Isrc /I..\src
/I..\..\petsc\include /I..\..\petsc\arch-mswin-c-opt\include
/Isrc\libmf6_external.a.p "/IC:\Program Files
(x86)\Intel\oneAPI\mpi\latest\env\\..\include" "/IC:\Program Files
(x86)\Intel\oneAPI\mpi\latest\env\\..\include\mpi" /MTd /nologo /warn:general
/warn:truncated_source /stand:f08 /Zi /traceback /O2 /fpe:0 /heap-arrays:0
/traceback /fpp /Qdiag-disable:7416 /Qdiag-disable:7025 /Qdiag-disable:5268
/Qdiag-disable:10448 /D__WITH_PETSC__ /D__WITH_MPI__
/Fdsrc\libmf6core.a.p\Utilities_compilerversion.F90.pdb
/module:src\libmf6core.a.p
/Fosrc/libmf6core.a.p/Utilities_compilerversion.F90.obj /c

System command used to initiate simulation:
C:\Users\mpedraza\AppData\Local\miniforge3\envs\mfandmore2024\Scripts\mf6.exe

MODFLOW was compiled using uniform precision.

Real Variables
  KIND: 8
  TINY (smallest non-zero value):    2.225074-308
  HUGE (largest value):    1.797693+308
  PRECISION: 15
  SIZE IN BITS: 64

Integer Variables
  KIND: 4
  HUGE (largest value): 2147483647
  SIZE IN BITS: 32

Long Integer Variables
  KIND: 8
  HUGE (largest value): 9223372036854775807
  SIZE IN BITS: 64

Logical Variables
  KIND: 4
  SIZE IN BITS: 32
 

 OPENED mfsim.nam
 FILE TYPE:NAM6               UNIT 1001   STATUS:OLD                 
 FORMAT:FORMATTED              ACCESS:SEQUENTIAL          
 ACTION:READ                

 # File generated by Flopy version 3.7.0 on 05/31/2024 at 13:13:14.

 OPENED ex-gwe-ates.tdis
 FILE TYPE:TDIS6              UNIT 1002   STATUS:OLD                 
 FORMAT:FORMATTED              ACCESS:SEQUENTIAL          
 ACTION:READ                

 # File generated by Flopy version 3.7.0 on 05/31/2024 at 13:13:14.

 OPENED gwf-ates.nam
 FILE TYPE:GWF6               UNIT 1003   STATUS:OLD                 
 FORMAT:FORMATTED              ACCESS:SEQUENTIAL          
 ACTION:READ                

 # File generated by Flopy version 3.7.0 on 05/31/2024 at 13:13:14.

 OPENED gwf-ates.disv
 FILE TYPE:DISV6              UNIT 1004   STATUS:OLD                 
 FORMAT:FORMATTED              ACCESS:SEQUENTIAL          
 ACTION:READ                

 # File generated by Flopy version 3.7.0 on 05/31/2024 at 13:13:14.

 OPENED gwf-ates.npf
 FILE TYPE:NPF6               UNIT 1005   STATUS:OLD                 
 FORMAT:FORMATTED              ACCESS:SEQUENTIAL          
 ACTION:READ                

 # File generated by Flopy version 3.7.0 on 05/31/2024 at 13:13:15.

 OPENED gwf-ates.sto
 FILE TYPE:STO6      UNIT 1006   STATUS:OLD                 
 FORMAT:FORMATTED              ACCESS:SEQUENTIAL          
 ACTION:READ                


 OPENED gwf-ates.ic
 FILE TYPE:IC6                UNIT 1007   STATUS:OLD                 
 FORMAT:FORMATTED              ACCESS:SEQUENTIAL          
 ACTION:READ                

 # File generated by Flopy version 3.7.0 on 05/31/2024 at 13:13:15.

 OPENED gwf-ates.oc
 FILE TYPE:OC6       UNIT 1008   STATUS:OLD                 
 FORMAT:FORMATTED              ACCESS:SEQUENTIAL          
 ACTION:READ                


 OPENED gwf-ates.wel
 FILE TYPE:WEL6               UNIT 1009   STATUS:OLD                 
 FORMAT:FORMATTED              ACCESS:SEQUENTIAL          
 ACTION:READ                

 # File generated by Flopy version 3.7.0 on 05/31/2024 at 13:13:16.
    AUXILIARY  VARIABLE: TEMPERATURE     

 OPENED gwe-ates.nam
 FILE TYPE:GWE6               UNIT 1010   STATUS:OLD                 
 FORMAT:FORMATTED              ACCESS:SEQUENTIAL          
 ACTION:READ                

 # File generated by Flopy version 3.7.0 on 05/31/2024 at 13:13:18.

 OPENED gwe-ates.disv
 FILE TYPE:DISV6              UNIT 1011   STATUS:OLD                 
 FORMAT:FORMATTED              ACCESS:SEQUENTIAL          
 ACTION:READ                

 # File generated by Flopy version 3.7.0 on 05/31/2024 at 13:13:18.

 OPENED gwe-ates.ic
 FILE TYPE:IC6                UNIT 1012   STATUS:OLD                 
 FORMAT:FORMATTED              ACCESS:SEQUENTIAL          
 ACTION:READ                

 # File generated by Flopy version 3.7.0 on 05/31/2024 at 13:13:19.

 OPENED gwe-ates.est
 FILE TYPE:EST6      UNIT 1013   STATUS:OLD                 
 FORMAT:FORMATTED              ACCESS:SEQUENTIAL          
 ACTION:READ                


 OPENED gwe-ates.adv
 FILE TYPE:ADV6      UNIT 1014   STATUS:OLD                 
 FORMAT:FORMATTED              ACCESS:SEQUENTIAL          
 ACTION:READ                


 OPENED gwe-ates.cnd
 FILE TYPE:CND6               UNIT 1015   STATUS:OLD                 
 FORMAT:FORMATTED              ACCESS:SEQUENTIAL          
 ACTION:READ                

 # File generated by Flopy version 3.7.0 on 05/31/2024 at 13:13:19.

 OPENED gwe-ates.ssm
 FILE TYPE:SSM6      UNIT 1016   STATUS:OLD                 
 FORMAT:FORMATTED              ACCESS:SEQUENTIAL          
 ACTION:READ                


 OPENED gwe-ates.oc
 FILE TYPE:OC6       UNIT 1017   STATUS:OLD                 
 FORMAT:FORMATTED              ACCESS:SEQUENTIAL          
 ACTION:READ                


 OPENED gwe-ates.gwfgwe
 FILE TYPE:GWF6-GWE6          UNIT 1018   STATUS:OLD                 
 FORMAT:FORMATTED              ACCESS:SEQUENTIAL          
 ACTION:READ                

 # File generated by Flopy version 3.7.0 on 05/31/2024 at 13:13:14.

 READING SIMULATION OPTIONS
    MAXIMUM NUMBER OF ERRORS THAT WILL BE STORED IS 1000
 END OF SIMULATION OPTIONS

 READING SIMULATION TIMING

 TDIS -- TEMPORAL DISCRETIZATION PACKAGE,
 VERSION 1 : 11/13/2014 - INPUT READ FROM MEMPATH: __INPUT__/SIM/TDIS                                
 PROCESSING TDIS OPTIONS
    SIMULATION TIME UNIT IS DAYS
 END OF TDIS OPTIONS
 PROCESSING TDIS DIMENSIONS
  127 STRESS PERIOD(S) IN SIMULATION
 END OF TDIS DIMENSIONS
 PROCESSING TDIS PERIODDATA


 STRESS PERIOD     LENGTH       TIME STEPS     MULTIPLIER FOR DELT
 ----------------------------------------------------------------------------
        1         10.00000          1                    1.000
        2         10.00000          1                    1.000
        3         10.00000          1                    1.000
        4         10.00000          1                    1.000
        5         10.00000          1                    1.000
        6         10.00000          1                    1.000
        7         10.00000          1                    1.000
        8         10.00000          1                    1.000
        9         10.00000          1                    1.000
       10         10.00000          1                    1.000
       11         10.00000          1                    1.000
       12         10.00000          1                    1.000
       13         10.00000          1                    1.000
       14         10.00000          1                    1.000
       15         10.00000          1                    1.000
       16         10.00000          1                    1.000
       17         10.00000          1                    1.000
       18         10.00000          1                    1.000
       19         10.00000          1                    1.000
       20         10.00000          1                    1.000
       21         10.00000          1                    1.000
       22         10.00000          1                    1.000
       23         10.00000          1                    1.000
       24         10.00000          1                    1.000
       25         10.00000          1                    1.000
       26         10.00000          1                    1.000
       27         10.00000          1                    1.000
       28         10.00000          1                    1.000
       29         10.00000          1                    1.000
       30         10.00000          1                    1.000
       31         10.00000          1                    1.000
       32         10.00000          1                    1.000
       33         10.00000          1                    1.000
       34         10.00000          1                    1.000
       35         10.00000          1                    1.000
       36         10.00000          1                    1.000
       37         10.00000          1                    1.000
       38         10.00000          1                    1.000
       39         10.00000          1                    1.000
       40         10.00000          1                    1.000
       41         10.00000          1                    1.000
       42         10.00000          1                    1.000
       43         10.00000          1                    1.000
       44         10.00000          1                    1.000
       45         10.00000          1                    1.000
       46         10.00000          1                    1.000
       47         10.00000          1                    1.000
       48         10.00000          1                    1.000
       49         10.00000          1                    1.000
       50         10.00000          1                    1.000
       51         10.00000          1                    1.000
       52         10.00000          1                    1.000
       53         10.00000          1                    1.000
       54         10.00000          1                    1.000
       55         10.00000          1                    1.000
       56         10.00000          1                    1.000
       57         10.00000          1                    1.000
       58         10.00000          1                    1.000
       59         10.00000          1                    1.000
       60         10.00000          1                    1.000
       61         10.00000          1                    1.000
       62         10.00000          1                    1.000
       63         10.00000          1                    1.000
       64         10.00000          1                    1.000
       65         10.00000          1                    1.000
       66         10.00000          1                    1.000
       67         10.00000          1                    1.000
       68         10.00000          1                    1.000
       69         10.00000          1                    1.000
       70         10.00000          1                    1.000
       71         10.00000          1                    1.000
       72         10.00000          1                    1.000
       73         10.00000          1                    1.000
       74         10.00000          1                    1.000
       75         10.00000          1                    1.000
       76         10.00000          1                    1.000
       77         10.00000          1                    1.000
       78         10.00000          1                    1.000
       79         10.00000          1                    1.000
       80         10.00000          1                    1.000
       81         10.00000          1                    1.000
       82         10.00000          1                    1.000
       83         10.00000          1                    1.000
       84         10.00000          1                    1.000
       85         10.00000          1                    1.000
       86         10.00000          1                    1.000
       87         10.00000          1                    1.000
       88         10.00000          1                    1.000
       89         10.00000          1                    1.000
       90         10.00000          1                    1.000
       91         10.00000          1                    1.000
       92         10.00000          1                    1.000
       93         10.00000          1                    1.000
       94         10.00000          1                    1.000
       95         10.00000          1                    1.000
       96         10.00000          1                    1.000
       97         10.00000          1                    1.000
       98         10.00000          1                    1.000
       99         10.00000          1                    1.000
      100         10.00000          1                    1.000
      101         10.00000          1                    1.000
      102         10.00000          1                    1.000
      103         10.00000          1                    1.000
      104         10.00000          1                    1.000
      105         10.00000          1                    1.000
      106         10.00000          1                    1.000
      107         10.00000          1                    1.000
      108         10.00000          1                    1.000
      109         10.00000          1                    1.000
      110         10.00000          1                    1.000
      111         10.00000          1                    1.000
      112         10.00000          1                    1.000
      113         10.00000          1                    1.000
      114         10.00000          1                    1.000
      115         10.00000          1                    1.000
      116         10.00000          1                    1.000
      117         10.00000          1                    1.000
      118         10.00000          1                    1.000
      119         10.00000          1                    1.000
      120         10.00000          1                    1.000
      121         10.00000          1                    1.000
      122         10.00000          1                    1.000
      123         10.00000          1                    1.000
      124         10.00000          1                    1.000
      125         10.00000          1                    1.000
      126         10.00000          1                    1.000
      127         10.00000          1                    1.000
 END OF TDIS PERIODDATA
 END OF SIMULATION TIMING

 READING SIMULATION MODELS
    GWF6 model 1 will be created
    GWE6 model 2 will be created
 END OF SIMULATION MODELS

 READING SIMULATION EXCHANGES
    GWF6-GWE6 exchange 1 will be created to connect model 1 with model 2
 END OF SIMULATION EXCHANGES

 READING SOLUTIONGROUP

 Creating solution: SLN_1           

 OPENED gwf-ates.ims
 FILE TYPE:IMS   UNIT 1021   STATUS:OLD                 
 FORMAT:FORMATTED              ACCESS:SEQUENTIAL          
 ACTION:READ                


 Creating solution: SLN_2           

 OPENED gwe-ates.ims
 FILE TYPE:IMS   UNIT 1022   STATUS:OLD                 
 FORMAT:FORMATTED              ACCESS:SEQUENTIAL          
 ACTION:READ                

 END OF SOLUTIONGROUP

PROCESSING MODEL CONNECTIONS
END OF MODEL CONNECTIONS

 IMS -- ITERATIVE MODEL SOLUTION PACKAGE, VERSION 6, 4/28/2017
         INPUT READ FROM UNIT 1021
 # File generated by Flopy version 3.7.0 on 05/31/2024 at 13:13:14.

 PROCESSING IMS OPTIONS
 SIMPLE OPTION:
 DEFAULT SOLVER INPUT VALUES FOR FAST SOLUTIONS
 END OF IMS OPTIONS

 PROCESSING IMS NONLINEAR
 END OF IMS NONLINEAR DATA
 **UNDER-RELAXATION WILL BE USED***
 

 PROCESSING LINEAR DATA
 END OF LINEAR DATA
 ***IMS LINEAR SOLVER WILL BE USED***

 IMSLINEAR -- UNSTRUCTURED LINEAR SOLUTION PACKAGE, VERSION 8, 04/28/2017
 An asymmetric matrix will be solved

 OUTER ITERATION CONVERGENCE CRITERION    (DVCLOSE) =    0.100000E-06
 MAXIMUM NUMBER OF OUTER ITERATIONS        (MXITER) = 200
 SOLVER PRINTOUT INDEX                     (IPRIMS) = 1
 NONLINEAR ITERATION METHOD            (NONLINMETH) = 3
 LINEAR SOLUTION METHOD                   (LINMETH) = 1
 UNDER-RELAXATION WEIGHT REDUCTION FACTOR   (THETA) =    0.100000E+01
 UNDER-RELAXATION WEIGHT INCREASE INCREMENT (KAPPA) =    0.000000E+00
 UNDER-RELAXATION PREVIOUS HISTORY FACTOR   (GAMMA) =    0.100000E+01
 UNDER-RELAXATION MOMENTUM TERM         (AMOMENTUM) =    0.000000E+00

       SOLUTION BY THE BICONJUGATE-GRADIENT STABILIZED METHOD
 ------------------------------------------------------------------
 MAXIMUM OF 200 CALLS OF SOLUTION ROUTINE
 MAXIMUM OF 300 INTERNAL ITERATIONS PER CALL TO SOLUTION ROUTINE
 LINEAR ACCELERATION METHOD            = BCGS      
 MATRIX PRECONDITIONING TYPE           = MOD. INCOMPLETE LU  
 MATRIX SCALING APPROACH               = NO SCALING          
 MATRIX REORDERING APPROACH            = ORIGINAL ORDERING        
 NUMBER OF ORTHOGONALIZATIONS          = 0
 HEAD CHANGE CRITERION FOR CLOSURE     =    0.10000E-06
 RESIDUAL CHANGE CRITERION FOR CLOSURE =    0.10000E-02
 RESIDUAL CONVERGENCE OPTION           = 0
 RESIDUAL CONVERGENCE NORM             = INFINITY NORM   
 RELAXATION FACTOR                     =    0.97000E+00




 IMS -- ITERATIVE MODEL SOLUTION PACKAGE, VERSION 6, 4/28/2017
         INPUT READ FROM UNIT 1022
 # File generated by Flopy version 3.7.0 on 05/31/2024 at 13:13:14.

 PROCESSING IMS OPTIONS
 SIMPLE OPTION:
 DEFAULT SOLVER INPUT VALUES FOR FAST SOLUTIONS
 PSEUDO-TRANSIENT CONTINUATION DISABLED FOR ALL STRESS-PERIOD(S)
 END OF IMS OPTIONS

 PROCESSING IMS NONLINEAR
 END OF IMS NONLINEAR DATA
 **UNDER-RELAXATION WILL BE USED***
 

 PROCESSING LINEAR DATA
 END OF LINEAR DATA
 ***IMS LINEAR SOLVER WILL BE USED***

 IMSLINEAR -- UNSTRUCTURED LINEAR SOLUTION PACKAGE, VERSION 8, 04/28/2017
 An asymmetric matrix will be solved

 OUTER ITERATION CONVERGENCE CRITERION    (DVCLOSE) =    0.100000E-03
 MAXIMUM NUMBER OF OUTER ITERATIONS        (MXITER) = 200
 SOLVER PRINTOUT INDEX                     (IPRIMS) = 1
 NONLINEAR ITERATION METHOD            (NONLINMETH) = 3
 LINEAR SOLUTION METHOD                   (LINMETH) = 1
 UNDER-RELAXATION WEIGHT REDUCTION FACTOR   (THETA) =    0.700000E+00
 UNDER-RELAXATION WEIGHT INCREASE INCREMENT (KAPPA) =    0.800000E-01
 UNDER-RELAXATION PREVIOUS HISTORY FACTOR   (GAMMA) =    0.500000E-01
 UNDER-RELAXATION MOMENTUM TERM         (AMOMENTUM) =    0.000000E+00
 MAXIMUM NUMBER OF BACKTRACKS            (NUMTRACK) = 20
 BACKTRACKING TOLERANCE FACTOR               (BTOL) =    0.200000E+01
 BACKTRACKING REDUCTION FACTOR             (BREDUC) =    0.200000E+00
 BACKTRACKING RESIDUAL LIMIT              (RES_LIM) =    0.500000E-03

       SOLUTION BY THE BICONJUGATE-GRADIENT STABILIZED METHOD
 ------------------------------------------------------------------
 MAXIMUM OF 200 CALLS OF SOLUTION ROUTINE
 MAXIMUM OF 300 INTERNAL ITERATIONS PER CALL TO SOLUTION ROUTINE
 LINEAR ACCELERATION METHOD            = BCGS      
 MATRIX PRECONDITIONING TYPE           = INCOMPLETE LUT      
 MATRIX SCALING APPROACH               = NO SCALING          
 MATRIX REORDERING APPROACH            = ORIGINAL ORDERING        
 NUMBER OF ORTHOGONALIZATIONS          = 2
 HEAD CHANGE CRITERION FOR CLOSURE     =    0.10000E-03
 RESIDUAL CHANGE CRITERION FOR CLOSURE =    0.10000E-02
 RESIDUAL CONVERGENCE OPTION           = 1
 RESIDUAL CONVERGENCE NORM             = INFINITY NORM S 
 RELAXATION FACTOR                     =    0.00000E+00
 NUMBER OF LEVELS                      =              8
 DROP TOLERANCE                        =    0.10000E-02


 
    Solving:  Stress period:     1    Time step:     1
 
1
 STRESS PERIOD NO. 1, LENGTH =   10.00000    
 ------------------------------------------
 NUMBER OF TIME STEPS = 1
 MULTIPLIER FOR DELT =     1.000
 INITIAL TIME STEP SIZE =   10.00000    

 SLN_1 OUTER ITERATION SUMMARY
 ----------------------------------------------------------------------------------------------------------
                                OUTER      INNER                    STEP   MAXIMUM CHANGE MODEL-(CELLID) OR
 OUTER ITERATION STEP       ITERATION  ITERATION  MAXIMUM CHANGE SUCCESS             MODEL-PACKAGE-(NUMBER)
 ----------------------------------------------------------------------------------------------------------
 Model                              1          1       0.0000000       *                                   
 ----------------------------------------------------------------------------------------------------------


 1 CALLS TO NUMERICAL SOLUTION IN TIME STEP 1 STRESS PERIOD 1
 1 TOTAL ITERATIONS

 SLN_2 OUTER ITERATION SUMMARY
 ----------------------------------------------------------------------------------------------------------------------------------------------------------------
                                OUTER      INNER  BACKTRACK  BACKTRACK        INCOMING        OUTGOING                    STEP   MAXIMUM CHANGE MODEL-(CELLID) OR
 OUTER ITERATION STEP       ITERATION  ITERATION       FLAG ITERATIONS        RESIDUAL        RESIDUAL  MAXIMUM CHANGE SUCCESS             MODEL-PACKAGE-(NUMBER)
 ----------------------------------------------------------------------------------------------------------------------------------------------------------------
 Backtracking                       1                     0          0  5.39753811E-07  5.39753811E-07                       *                                   
 Model                              1          1                                                       -3.55271368E-14       *                      2_GWE-(1,379)
 ----------------------------------------------------------------------------------------------------------------------------------------------------------------


 1 CALLS TO NUMERICAL SOLUTION IN TIME STEP 1 STRESS PERIOD 1
 1 TOTAL ITERATIONS
 
    Solving:  Stress period:     2    Time step:     1
 
1
 STRESS PERIOD NO. 2, LENGTH =   10.00000    
 ------------------------------------------
 NUMBER OF TIME STEPS = 1
 MULTIPLIER FOR DELT =     1.000
 INITIAL TIME STEP SIZE =   10.00000    

 SLN_1 OUTER ITERATION SUMMARY
 ----------------------------------------------------------------------------------------------------------
                                OUTER      INNER                    STEP   MAXIMUM CHANGE MODEL-(CELLID) OR
 OUTER ITERATION STEP       ITERATION  ITERATION  MAXIMUM CHANGE SUCCESS             MODEL-PACKAGE-(NUMBER)
 ----------------------------------------------------------------------------------------------------------
 Model                              1          1       0.0000000       *                                   
 ----------------------------------------------------------------------------------------------------------


 1 CALLS TO NUMERICAL SOLUTION IN TIME STEP 1 STRESS PERIOD 2
 1 TOTAL ITERATIONS

 SLN_2 OUTER ITERATION SUMMARY
 ----------------------------------------------------------------------------------------------------------------------------------------------------------------
                                OUTER      INNER  BACKTRACK  BACKTRACK        INCOMING        OUTGOING                    STEP   MAXIMUM CHANGE MODEL-(CELLID) OR
 OUTER ITERATION STEP       ITERATION  ITERATION       FLAG ITERATIONS        RESIDUAL        RESIDUAL  MAXIMUM CHANGE SUCCESS             MODEL-PACKAGE-(NUMBER)
 ----------------------------------------------------------------------------------------------------------------------------------------------------------------
 Backtracking                       1                     0          0  4.82861791E-07  4.82861791E-07                       *                                   
 Model                              1          1                                                        4.26325641E-14       *                     2_GWE-(1,3251)
 ----------------------------------------------------------------------------------------------------------------------------------------------------------------


 1 CALLS TO NUMERICAL SOLUTION IN TIME STEP 1 STRESS PERIOD 2
 1 TOTAL ITERATIONS
 
    Solving:  Stress period:     3    Time step:     1
 
1
 STRESS PERIOD NO. 3, LENGTH =   10.00000    
 ------------------------------------------
 NUMBER OF TIME STEPS = 1
 MULTIPLIER FOR DELT =     1.000
 INITIAL TIME STEP SIZE =   10.00000    

 SLN_1 OUTER ITERATION SUMMARY
 ----------------------------------------------------------------------------------------------------------
                                OUTER      INNER                    STEP   MAXIMUM CHANGE MODEL-(CELLID) OR
 OUTER ITERATION STEP       ITERATION  ITERATION  MAXIMUM CHANGE SUCCESS             MODEL-PACKAGE-(NUMBER)
 ----------------------------------------------------------------------------------------------------------
 Model                              1        183      -9.6090524                             1_GWF-(1,4857)
 Model                              2          1 -1.89970706E-10       *                     1_GWF-(1,4022)
 ----------------------------------------------------------------------------------------------------------


 2 CALLS TO NUMERICAL SOLUTION IN TIME STEP 1 STRESS PERIOD 3
 184 TOTAL ITERATIONS

 SLN_2 OUTER ITERATION SUMMARY
 ----------------------------------------------------------------------------------------------------------------------------------------------------------------
                                OUTER      INNER  BACKTRACK  BACKTRACK        INCOMING        OUTGOING                    STEP   MAXIMUM CHANGE MODEL-(CELLID) OR
 OUTER ITERATION STEP       ITERATION  ITERATION       FLAG ITERATIONS        RESIDUAL        RESIDUAL  MAXIMUM CHANGE SUCCESS             MODEL-PACKAGE-(NUMBER)
 ----------------------------------------------------------------------------------------------------------------------------------------------------------------
 Backtracking                       1                     0          0       2.3083007       2.3083007                       *                                   
 Model                              1          2                                                       -1.82757837E-07       *                      2_GWE-(1,633)
 ----------------------------------------------------------------------------------------------------------------------------------------------------------------


 1 CALLS TO NUMERICAL SOLUTION IN TIME STEP 1 STRESS PERIOD 3
 2 TOTAL ITERATIONS
 
    Solving:  Stress period:     4    Time step:     1
 
1
 STRESS PERIOD NO. 4, LENGTH =   10.00000    
 ------------------------------------------
 NUMBER OF TIME STEPS = 1
 MULTIPLIER FOR DELT =     1.000
 INITIAL TIME STEP SIZE =   10.00000    

 SLN_1 OUTER ITERATION SUMMARY
 ----------------------------------------------------------------------------------------------------------
                                OUTER      INNER                    STEP   MAXIMUM CHANGE MODEL-(CELLID) OR
 OUTER ITERATION STEP       ITERATION  ITERATION  MAXIMUM CHANGE SUCCESS             MODEL-PACKAGE-(NUMBER)
 ----------------------------------------------------------------------------------------------------------
 Model                              1        158      -17.490398                             1_GWF-(1,4857)
 Model                              2          1  1.76321464E-08       *                     1_GWF-(1,3456)
 ----------------------------------------------------------------------------------------------------------


 2 CALLS TO NUMERICAL SOLUTION IN TIME STEP 1 STRESS PERIOD 4
 159 TOTAL ITERATIONS

 SLN_2 OUTER ITERATION SUMMARY
 ----------------------------------------------------------------------------------------------------------------------------------------------------------------
                                OUTER      INNER  BACKTRACK  BACKTRACK        INCOMING        OUTGOING                    STEP   MAXIMUM CHANGE MODEL-(CELLID) OR
 OUTER ITERATION STEP       ITERATION  ITERATION       FLAG ITERATIONS        RESIDUAL        RESIDUAL  MAXIMUM CHANGE SUCCESS             MODEL-PACKAGE-(NUMBER)
 ----------------------------------------------------------------------------------------------------------------------------------------------------------------
 Backtracking                       1                     0          0       1.9765769       1.9765769                       *                                   
 Model                              1          2                                                        1.93635692E-07       *                     2_GWE-(1,3281)
 ----------------------------------------------------------------------------------------------------------------------------------------------------------------


 1 CALLS TO NUMERICAL SOLUTION IN TIME STEP 1 STRESS PERIOD 4
 2 TOTAL ITERATIONS
 
    Solving:  Stress period:     5    Time step:     1
 
1
 STRESS PERIOD NO. 5, LENGTH =   10.00000    
 ------------------------------------------
 NUMBER OF TIME STEPS = 1
 MULTIPLIER FOR DELT =     1.000
 INITIAL TIME STEP SIZE =   10.00000    

 SLN_1 OUTER ITERATION SUMMARY
 ----------------------------------------------------------------------------------------------------------
                                OUTER      INNER                    STEP   MAXIMUM CHANGE MODEL-(CELLID) OR
 OUTER ITERATION STEP       ITERATION  ITERATION  MAXIMUM CHANGE SUCCESS             MODEL-PACKAGE-(NUMBER)
 ----------------------------------------------------------------------------------------------------------
 Model                              1        161      -24.586520                             1_GWF-(1,4857)
 Model                              2          1 -1.49001380E-08       *                     1_GWF-(1,3469)
 ----------------------------------------------------------------------------------------------------------


 2 CALLS TO NUMERICAL SOLUTION IN TIME STEP 1 STRESS PERIOD 5
 162 TOTAL ITERATIONS

 SLN_2 OUTER ITERATION SUMMARY
 ----------------------------------------------------------------------------------------------------------------------------------------------------------------
                                OUTER      INNER  BACKTRACK  BACKTRACK        INCOMING        OUTGOING                    STEP   MAXIMUM CHANGE MODEL-(CELLID) OR
 OUTER ITERATION STEP       ITERATION  ITERATION       FLAG ITERATIONS        RESIDUAL        RESIDUAL  MAXIMUM CHANGE SUCCESS             MODEL-PACKAGE-(NUMBER)
 ----------------------------------------------------------------------------------------------------------------------------------------------------------------
 Backtracking                       1                     0          0       2.4547086       2.4547086                       *                                   
 Model                              1          2                                                        1.81819082E-07       *                     2_GWE-(1,3285)
 ----------------------------------------------------------------------------------------------------------------------------------------------------------------


 1 CALLS TO NUMERICAL SOLUTION IN TIME STEP 1 STRESS PERIOD 5
 2 TOTAL ITERATIONS
 
    Solving:  Stress period:     6    Time step:     1
 
1
 STRESS PERIOD NO. 6, LENGTH =   10.00000    
 ------------------------------------------
 NUMBER OF TIME STEPS = 1
 MULTIPLIER FOR DELT =     1.000
 INITIAL TIME STEP SIZE =   10.00000    

 SLN_1 OUTER ITERATION SUMMARY
 ----------------------------------------------------------------------------------------------------------
                                OUTER      INNER                    STEP   MAXIMUM CHANGE MODEL-(CELLID) OR
 OUTER ITERATION STEP       ITERATION  ITERATION  MAXIMUM CHANGE SUCCESS             MODEL-PACKAGE-(NUMBER)
 ----------------------------------------------------------------------------------------------------------
 Model                              1        156      -31.325364                             1_GWF-(1,4857)
 Model                              2          1 -3.22095275E-08       *                     1_GWF-(1,4386)
 ----------------------------------------------------------------------------------------------------------


 2 CALLS TO NUMERICAL SOLUTION IN TIME STEP 1 STRESS PERIOD 6
 157 TOTAL ITERATIONS

 SLN_2 OUTER ITERATION SUMMARY
 ----------------------------------------------------------------------------------------------------------------------------------------------------------------
                                OUTER      INNER  BACKTRACK  BACKTRACK        INCOMING        OUTGOING                    STEP   MAXIMUM CHANGE MODEL-(CELLID) OR
 OUTER ITERATION STEP       ITERATION  ITERATION       FLAG ITERATIONS        RESIDUAL        RESIDUAL  MAXIMUM CHANGE SUCCESS             MODEL-PACKAGE-(NUMBER)
 ----------------------------------------------------------------------------------------------------------------------------------------------------------------
 Backtracking                       1                     0          0       4.4407972       4.4407972                       *                                   
 Model                              1          2                                                        5.23966065E-07       *                     2_GWE-(1,4861)
 ----------------------------------------------------------------------------------------------------------------------------------------------------------------


 1 CALLS TO NUMERICAL SOLUTION IN TIME STEP 1 STRESS PERIOD 6
 2 TOTAL ITERATIONS
 
    Solving:  Stress period:     7    Time step:     1
 
1
 STRESS PERIOD NO. 7, LENGTH =   10.00000    
 ------------------------------------------
 NUMBER OF TIME STEPS = 1
 MULTIPLIER FOR DELT =     1.000
 INITIAL TIME STEP SIZE =   10.00000    

 SLN_1 OUTER ITERATION SUMMARY
 ----------------------------------------------------------------------------------------------------------
                                OUTER      INNER                    STEP   MAXIMUM CHANGE MODEL-(CELLID) OR
 OUTER ITERATION STEP       ITERATION  ITERATION  MAXIMUM CHANGE SUCCESS             MODEL-PACKAGE-(NUMBER)
 ----------------------------------------------------------------------------------------------------------
 Model                              1        162      -37.586276                             1_GWF-(1,4857)
 Model                              2          1  1.55822590E-08       *                     1_GWF-(1,4323)
 ----------------------------------------------------------------------------------------------------------


 2 CALLS TO NUMERICAL SOLUTION IN TIME STEP 1 STRESS PERIOD 7
 163 TOTAL ITERATIONS

 SLN_2 OUTER ITERATION SUMMARY
 ----------------------------------------------------------------------------------------------------------------------------------------------------------------
                                OUTER      INNER  BACKTRACK  BACKTRACK        INCOMING        OUTGOING                    STEP   MAXIMUM CHANGE MODEL-(CELLID) OR
 OUTER ITERATION STEP       ITERATION  ITERATION       FLAG ITERATIONS        RESIDUAL        RESIDUAL  MAXIMUM CHANGE SUCCESS             MODEL-PACKAGE-(NUMBER)
 ----------------------------------------------------------------------------------------------------------------------------------------------------------------
 Backtracking                       1                     0          0       3.2060826       3.2060826                       *                                   
 Model                              1          2                                                       -3.61758481E-07       *                      2_GWE-(1,329)
 ----------------------------------------------------------------------------------------------------------------------------------------------------------------


 1 CALLS TO NUMERICAL SOLUTION IN TIME STEP 1 STRESS PERIOD 7
 2 TOTAL ITERATIONS
 
    Solving:  Stress period:     8    Time step:     1
 
1
 STRESS PERIOD NO. 8, LENGTH =   10.00000    
 ------------------------------------------
 NUMBER OF TIME STEPS = 1
 MULTIPLIER FOR DELT =     1.000
 INITIAL TIME STEP SIZE =   10.00000    

 SLN_1 OUTER ITERATION SUMMARY
 ----------------------------------------------------------------------------------------------------------
                                OUTER      INNER                    STEP   MAXIMUM CHANGE MODEL-(CELLID) OR
 OUTER ITERATION STEP       ITERATION  ITERATION  MAXIMUM CHANGE SUCCESS             MODEL-PACKAGE-(NUMBER)
 ----------------------------------------------------------------------------------------------------------
 Model                              1        150      -33.963250                             1_GWF-(1,4858)
 Model                              2         21 -3.65793085E-06                              1_GWF-(1,451)
 Model                              3          4  8.83697339E-07                             1_GWF-(1,3437)
 Model                              4          4 -1.31167178E-06                             1_GWF-(1,3469)
 Model                              5         13  2.89600735E-07                             1_GWF-(1,4860)
 Model                              6         13  1.40467500E-06                             1_GWF-(1,3469)
 Model                              7          3 -3.19285016E-06                             1_GWF-(1,4117)
 Model                              8          5  3.95905624E-06                             1_GWF-(1,4117)
 Model                              9         28  1.14412754E-05                             1_GWF-(1,4874)
 Model                             10          3 -2.09421864E-06                             1_GWF-(1,3437)
 Model                             11         12  1.99164219E-07                             1_GWF-(1,4205)
 Model                             12          4  3.59539126E-06                             1_GWF-(1,3469)
 Model                             13         13 -1.56297756E-06                             1_GWF-(1,3437)
 Model                             14          3 -5.22240612E-07                             1_GWF-(1,3469)
 Model                             15          2 -3.04734840E-07                             1_GWF-(1,4315)
 Model                             16          3  2.78685889E-07                             1_GWF-(1,4315)
 Model                             17          3 -2.83017926E-07                             1_GWF-(1,4315)
 Model                             18          3  3.35460072E-07                             1_GWF-(1,4315)
 Model                             19          2 -2.25528424E-07                             1_GWF-(1,4315)
 Model                             20          1  3.26821237E-08       *                     1_GWF-(1,4315)
 ----------------------------------------------------------------------------------------------------------


 20 CALLS TO NUMERICAL SOLUTION IN TIME STEP 1 STRESS PERIOD 8
 290 TOTAL ITERATIONS

 SLN_2 OUTER ITERATION SUMMARY
 ----------------------------------------------------------------------------------------------------------------------------------------------------------------
                                OUTER      INNER  BACKTRACK  BACKTRACK        INCOMING        OUTGOING                    STEP   MAXIMUM CHANGE MODEL-(CELLID) OR
 OUTER ITERATION STEP       ITERATION  ITERATION       FLAG ITERATIONS        RESIDUAL        RESIDUAL  MAXIMUM CHANGE SUCCESS             MODEL-PACKAGE-(NUMBER)
 ----------------------------------------------------------------------------------------------------------------------------------------------------------------
 Backtracking                       1                     0          0       6.9698678       6.9698678                       *                                   
 Model                              1          2                                                        1.10620758E-06       *                      2_GWE-(1,453)
 ----------------------------------------------------------------------------------------------------------------------------------------------------------------


 1 CALLS TO NUMERICAL SOLUTION IN TIME STEP 1 STRESS PERIOD 8
 2 TOTAL ITERATIONS
 
    Solving:  Stress period:     9    Time step:     1
 
1
 STRESS PERIOD NO. 9, LENGTH =   10.00000    
 ------------------------------------------
 NUMBER OF TIME STEPS = 1
 MULTIPLIER FOR DELT =     1.000
 INITIAL TIME STEP SIZE =   10.00000    

 SLN_1 OUTER ITERATION SUMMARY
 ----------------------------------------------------------------------------------------------------------
                                OUTER      INNER                    STEP   MAXIMUM CHANGE MODEL-(CELLID) OR
 OUTER ITERATION STEP       ITERATION  ITERATION  MAXIMUM CHANGE SUCCESS             MODEL-PACKAGE-(NUMBER)
 ----------------------------------------------------------------------------------------------------------
 Model                              1        162      -31.935730                             1_GWF-(1,3193)
 Model                              2          1 -2.06443929E-09       *                     1_GWF-(1,4650)
 ----------------------------------------------------------------------------------------------------------


 2 CALLS TO NUMERICAL SOLUTION IN TIME STEP 1 STRESS PERIOD 9
 163 TOTAL ITERATIONS

 SLN_2 OUTER ITERATION SUMMARY
 ----------------------------------------------------------------------------------------------------------------------------------------------------------------
                                OUTER      INNER  BACKTRACK  BACKTRACK        INCOMING        OUTGOING                    STEP   MAXIMUM CHANGE MODEL-(CELLID) OR
 OUTER ITERATION STEP       ITERATION  ITERATION       FLAG ITERATIONS        RESIDUAL        RESIDUAL  MAXIMUM CHANGE SUCCESS             MODEL-PACKAGE-(NUMBER)
 ----------------------------------------------------------------------------------------------------------------------------------------------------------------
 Backtracking                       1                     0          0       3.6683050       3.6683050                       *                                   
 Model                              1          2                                                        5.85242525E-07       *                      2_GWE-(1,451)
 ----------------------------------------------------------------------------------------------------------------------------------------------------------------


 1 CALLS TO NUMERICAL SOLUTION IN TIME STEP 1 STRESS PERIOD 9
 2 TOTAL ITERATIONS
 
    Solving:  Stress period:    10    Time step:     1
 
1
 STRESS PERIOD NO. 10, LENGTH =   10.00000    
 ------------------------------------------
 NUMBER OF TIME STEPS = 1
 MULTIPLIER FOR DELT =     1.000
 INITIAL TIME STEP SIZE =   10.00000    

 SLN_1 OUTER ITERATION SUMMARY
 ----------------------------------------------------------------------------------------------------------
                                OUTER      INNER                    STEP   MAXIMUM CHANGE MODEL-(CELLID) OR
 OUTER ITERATION STEP       ITERATION  ITERATION  MAXIMUM CHANGE SUCCESS             MODEL-PACKAGE-(NUMBER)
 ----------------------------------------------------------------------------------------------------------
 Model                              1        157      -30.381828                             1_GWF-(1,3193)
 Model                              2          7  1.86634452E-07                             1_GWF-(1,1536)
 Model                              3          3 -1.91125764E-07                             1_GWF-(1,1536)
 Model                              4          1  2.16693934E-08       *                     1_GWF-(1,1536)
 ----------------------------------------------------------------------------------------------------------


 4 CALLS TO NUMERICAL SOLUTION IN TIME STEP 1 STRESS PERIOD 10
 168 TOTAL ITERATIONS

 SLN_2 OUTER ITERATION SUMMARY
 ----------------------------------------------------------------------------------------------------------------------------------------------------------------
                                OUTER      INNER  BACKTRACK  BACKTRACK        INCOMING        OUTGOING                    STEP   MAXIMUM CHANGE MODEL-(CELLID) OR
 OUTER ITERATION STEP       ITERATION  ITERATION       FLAG ITERATIONS        RESIDUAL        RESIDUAL  MAXIMUM CHANGE SUCCESS             MODEL-PACKAGE-(NUMBER)
 ----------------------------------------------------------------------------------------------------------------------------------------------------------------
 Backtracking                       1                     0          0       5.8841443       5.8841443                       *                                   
 Model                              1          2                                                       -8.63019395E-07       *                     2_GWE-(1,4861)
 ----------------------------------------------------------------------------------------------------------------------------------------------------------------


 1 CALLS TO NUMERICAL SOLUTION IN TIME STEP 1 STRESS PERIOD 10
 2 TOTAL ITERATIONS
 
    Solving:  Stress period:    11    Time step:     1
 
1
 STRESS PERIOD NO. 11, LENGTH =   10.00000    
 ------------------------------------------
 NUMBER OF TIME STEPS = 1
 MULTIPLIER FOR DELT =     1.000
 INITIAL TIME STEP SIZE =   10.00000    

 SLN_1 OUTER ITERATION SUMMARY
 ----------------------------------------------------------------------------------------------------------
                                OUTER      INNER                    STEP   MAXIMUM CHANGE MODEL-(CELLID) OR
 OUTER ITERATION STEP       ITERATION  ITERATION  MAXIMUM CHANGE SUCCESS             MODEL-PACKAGE-(NUMBER)
 ----------------------------------------------------------------------------------------------------------
 Model                              1        164      -29.136977                             1_GWF-(1,3193)
 Model                              2          1 -4.79155915E-09       *                     1_GWF-(1,4131)
 ----------------------------------------------------------------------------------------------------------


 2 CALLS TO NUMERICAL SOLUTION IN TIME STEP 1 STRESS PERIOD 11
 165 TOTAL ITERATIONS

 SLN_2 OUTER ITERATION SUMMARY
 ----------------------------------------------------------------------------------------------------------------------------------------------------------------
                                OUTER      INNER  BACKTRACK  BACKTRACK        INCOMING        OUTGOING                    STEP   MAXIMUM CHANGE MODEL-(CELLID) OR
 OUTER ITERATION STEP       ITERATION  ITERATION       FLAG ITERATIONS        RESIDUAL        RESIDUAL  MAXIMUM CHANGE SUCCESS             MODEL-PACKAGE-(NUMBER)
 ----------------------------------------------------------------------------------------------------------------------------------------------------------------
 Backtracking                       1                     0          0       5.2584183       5.2584183                       *                                   
 Model                              1          2                                                        4.64813837E-07       *                      2_GWE-(1,313)
 ----------------------------------------------------------------------------------------------------------------------------------------------------------------


 1 CALLS TO NUMERICAL SOLUTION IN TIME STEP 1 STRESS PERIOD 11
 2 TOTAL ITERATIONS
 
    Solving:  Stress period:    12    Time step:     1
 
1
 STRESS PERIOD NO. 12, LENGTH =   10.00000    
 ------------------------------------------
 NUMBER OF TIME STEPS = 1
 MULTIPLIER FOR DELT =     1.000
 INITIAL TIME STEP SIZE =   10.00000    

 SLN_1 OUTER ITERATION SUMMARY
 ----------------------------------------------------------------------------------------------------------
                                OUTER      INNER                    STEP   MAXIMUM CHANGE MODEL-(CELLID) OR
 OUTER ITERATION STEP       ITERATION  ITERATION  MAXIMUM CHANGE SUCCESS             MODEL-PACKAGE-(NUMBER)
 ----------------------------------------------------------------------------------------------------------
 Model                              1        156      -28.118751                             1_GWF-(1,3193)
 Model                              2          9  3.52993084E-07                              1_GWF-(1,121)
 Model                              3          3 -1.18115884E-06                             1_GWF-(1,1339)
 Model                              4          7  9.51375569E-07                             1_GWF-(1,1339)
 Model                              5          3 -5.37198389E-07                             1_GWF-(1,4117)
 Model                              6          5  5.35464892E-07                             1_GWF-(1,4117)
 Model                              7          1 -5.54799726E-08       *                     1_GWF-(1,4117)
 ----------------------------------------------------------------------------------------------------------


 7 CALLS TO NUMERICAL SOLUTION IN TIME STEP 1 STRESS PERIOD 12
 184 TOTAL ITERATIONS

 SLN_2 OUTER ITERATION SUMMARY
 ----------------------------------------------------------------------------------------------------------------------------------------------------------------
                                OUTER      INNER  BACKTRACK  BACKTRACK        INCOMING        OUTGOING                    STEP   MAXIMUM CHANGE MODEL-(CELLID) OR
 OUTER ITERATION STEP       ITERATION  ITERATION       FLAG ITERATIONS        RESIDUAL        RESIDUAL  MAXIMUM CHANGE SUCCESS             MODEL-PACKAGE-(NUMBER)
 ----------------------------------------------------------------------------------------------------------------------------------------------------------------
 Backtracking                       1                     0          0       7.2484859       7.2484859                       *                                   
 Model                              1          3                                                       -8.20227974E-07       *                     2_GWE-(1,4861)
 ----------------------------------------------------------------------------------------------------------------------------------------------------------------


 1 CALLS TO NUMERICAL SOLUTION IN TIME STEP 1 STRESS PERIOD 12
 3 TOTAL ITERATIONS
 
    Solving:  Stress period:    13    Time step:     1
 
1
 STRESS PERIOD NO. 13, LENGTH =   10.00000    
 ------------------------------------------
 NUMBER OF TIME STEPS = 1
 MULTIPLIER FOR DELT =     1.000
 INITIAL TIME STEP SIZE =   10.00000    

 SLN_1 OUTER ITERATION SUMMARY
 ----------------------------------------------------------------------------------------------------------
                                OUTER      INNER                    STEP   MAXIMUM CHANGE MODEL-(CELLID) OR
 OUTER ITERATION STEP       ITERATION  ITERATION  MAXIMUM CHANGE SUCCESS             MODEL-PACKAGE-(NUMBER)
 ----------------------------------------------------------------------------------------------------------
 Model                              1        162      -21.245554                             1_GWF-(1,4200)
 Model                              2          8 -8.10404117E-07                             1_GWF-(1,3587)
 Model                              3          1  9.47560466E-08       *                     1_GWF-(1,3437)
 ----------------------------------------------------------------------------------------------------------


 3 CALLS TO NUMERICAL SOLUTION IN TIME STEP 1 STRESS PERIOD 13
 171 TOTAL ITERATIONS

 SLN_2 OUTER ITERATION SUMMARY
 ----------------------------------------------------------------------------------------------------------------------------------------------------------------
                                OUTER      INNER  BACKTRACK  BACKTRACK        INCOMING        OUTGOING                    STEP   MAXIMUM CHANGE MODEL-(CELLID) OR
 OUTER ITERATION STEP       ITERATION  ITERATION       FLAG ITERATIONS        RESIDUAL        RESIDUAL  MAXIMUM CHANGE SUCCESS             MODEL-PACKAGE-(NUMBER)
 ----------------------------------------------------------------------------------------------------------------------------------------------------------------
 Backtracking                       1                     0          0       37.379184       37.379184                       *                                   
 Model                              1          3                                                       -5.29321405E-06       *                     2_GWE-(1,3294)
 ----------------------------------------------------------------------------------------------------------------------------------------------------------------


 1 CALLS TO NUMERICAL SOLUTION IN TIME STEP 1 STRESS PERIOD 13
 3 TOTAL ITERATIONS
 
    Solving:  Stress period:    14    Time step:     1
 
1
 STRESS PERIOD NO. 14, LENGTH =   10.00000    
 ------------------------------------------
 NUMBER OF TIME STEPS = 1
 MULTIPLIER FOR DELT =     1.000
 INITIAL TIME STEP SIZE =   10.00000    

 SLN_1 OUTER ITERATION SUMMARY
 ----------------------------------------------------------------------------------------------------------
                                OUTER      INNER                    STEP   MAXIMUM CHANGE MODEL-(CELLID) OR
 OUTER ITERATION STEP       ITERATION  ITERATION  MAXIMUM CHANGE SUCCESS             MODEL-PACKAGE-(NUMBER)
 ----------------------------------------------------------------------------------------------------------
 Model                              1        181      -18.003462                             1_GWF-(1,4657)
 Model                              2          1 -3.80623533E-10       *                     1_GWF-(1,4271)
 ----------------------------------------------------------------------------------------------------------


 2 CALLS TO NUMERICAL SOLUTION IN TIME STEP 1 STRESS PERIOD 14
 182 TOTAL ITERATIONS

 SLN_2 OUTER ITERATION SUMMARY
 ----------------------------------------------------------------------------------------------------------------------------------------------------------------
                                OUTER      INNER  BACKTRACK  BACKTRACK        INCOMING        OUTGOING                    STEP   MAXIMUM CHANGE MODEL-(CELLID) OR
 OUTER ITERATION STEP       ITERATION  ITERATION       FLAG ITERATIONS        RESIDUAL        RESIDUAL  MAXIMUM CHANGE SUCCESS             MODEL-PACKAGE-(NUMBER)
 ----------------------------------------------------------------------------------------------------------------------------------------------------------------
 Backtracking                       1                     0          0       27.984067       27.984067                       *                                   
 Model                              1          2                                                        3.35134008E-06       *                     2_GWE-(1,3304)
 ----------------------------------------------------------------------------------------------------------------------------------------------------------------


 1 CALLS TO NUMERICAL SOLUTION IN TIME STEP 1 STRESS PERIOD 14
 2 TOTAL ITERATIONS
 
    Solving:  Stress period:    15    Time step:     1
 
1
 STRESS PERIOD NO. 15, LENGTH =   10.00000    
 ------------------------------------------
 NUMBER OF TIME STEPS = 1
 MULTIPLIER FOR DELT =     1.000
 INITIAL TIME STEP SIZE =   10.00000    

 SLN_1 OUTER ITERATION SUMMARY
 ----------------------------------------------------------------------------------------------------------
                                OUTER      INNER                    STEP   MAXIMUM CHANGE MODEL-(CELLID) OR
 OUTER ITERATION STEP       ITERATION  ITERATION  MAXIMUM CHANGE SUCCESS             MODEL-PACKAGE-(NUMBER)
 ----------------------------------------------------------------------------------------------------------
 Model                              1        173      -16.484192                             1_GWF-(1,4785)
 Model                              2          1  7.44080353E-10       *                     1_GWF-(1,3697)
 ----------------------------------------------------------------------------------------------------------


 2 CALLS TO NUMERICAL SOLUTION IN TIME STEP 1 STRESS PERIOD 15
 174 TOTAL ITERATIONS

 SLN_2 OUTER ITERATION SUMMARY
 ----------------------------------------------------------------------------------------------------------------------------------------------------------------
                                OUTER      INNER  BACKTRACK  BACKTRACK        INCOMING        OUTGOING                    STEP   MAXIMUM CHANGE MODEL-(CELLID) OR
 OUTER ITERATION STEP       ITERATION  ITERATION       FLAG ITERATIONS        RESIDUAL        RESIDUAL  MAXIMUM CHANGE SUCCESS             MODEL-PACKAGE-(NUMBER)
 ----------------------------------------------------------------------------------------------------------------------------------------------------------------
 Backtracking                       1                     0          0       4.7202738       4.7202738                       *                                   
 Model                              1          2                                                        9.42848835E-07       *                     2_GWE-(1,4870)
 ----------------------------------------------------------------------------------------------------------------------------------------------------------------


 1 CALLS TO NUMERICAL SOLUTION IN TIME STEP 1 STRESS PERIOD 15
 2 TOTAL ITERATIONS
 
    Solving:  Stress period:    16    Time step:     1
 
1
 STRESS PERIOD NO. 16, LENGTH =   10.00000    
 ------------------------------------------
 NUMBER OF TIME STEPS = 1
 MULTIPLIER FOR DELT =     1.000
 INITIAL TIME STEP SIZE =   10.00000    

 SLN_1 OUTER ITERATION SUMMARY
 ----------------------------------------------------------------------------------------------------------
                                OUTER      INNER                    STEP   MAXIMUM CHANGE MODEL-(CELLID) OR
 OUTER ITERATION STEP       ITERATION  ITERATION  MAXIMUM CHANGE SUCCESS             MODEL-PACKAGE-(NUMBER)
 ----------------------------------------------------------------------------------------------------------
 Model                              1        169      -15.907085                             1_GWF-(1,4768)
 Model                              2          1  1.61401204E-09       *                     1_GWF-(1,4117)
 ----------------------------------------------------------------------------------------------------------


 2 CALLS TO NUMERICAL SOLUTION IN TIME STEP 1 STRESS PERIOD 16
 170 TOTAL ITERATIONS

 SLN_2 OUTER ITERATION SUMMARY
 ----------------------------------------------------------------------------------------------------------------------------------------------------------------
                                OUTER      INNER  BACKTRACK  BACKTRACK        INCOMING        OUTGOING                    STEP   MAXIMUM CHANGE MODEL-(CELLID) OR
 OUTER ITERATION STEP       ITERATION  ITERATION       FLAG ITERATIONS        RESIDUAL        RESIDUAL  MAXIMUM CHANGE SUCCESS             MODEL-PACKAGE-(NUMBER)
 ----------------------------------------------------------------------------------------------------------------------------------------------------------------
 Backtracking                       1                     0          0       2.4452039       2.4452039                       *                                   
 Model                              1          2                                                        6.36227611E-07       *                     2_GWE-(1,4867)
 ----------------------------------------------------------------------------------------------------------------------------------------------------------------


 1 CALLS TO NUMERICAL SOLUTION IN TIME STEP 1 STRESS PERIOD 16
 2 TOTAL ITERATIONS
 
    Solving:  Stress period:    17    Time step:     1
 
1
 STRESS PERIOD NO. 17, LENGTH =   10.00000    
 ------------------------------------------
 NUMBER OF TIME STEPS = 1
 MULTIPLIER FOR DELT =     1.000
 INITIAL TIME STEP SIZE =   10.00000    

 SLN_1 OUTER ITERATION SUMMARY
 ----------------------------------------------------------------------------------------------------------
                                OUTER      INNER                    STEP   MAXIMUM CHANGE MODEL-(CELLID) OR
 OUTER ITERATION STEP       ITERATION  ITERATION  MAXIMUM CHANGE SUCCESS             MODEL-PACKAGE-(NUMBER)
 ----------------------------------------------------------------------------------------------------------
 Model                              1        170      -14.903539                             1_GWF-(1,4793)
 Model                              2          1  1.94427230E-09       *                     1_GWF-(1,3631)
 ----------------------------------------------------------------------------------------------------------


 2 CALLS TO NUMERICAL SOLUTION IN TIME STEP 1 STRESS PERIOD 17
 171 TOTAL ITERATIONS

 SLN_2 OUTER ITERATION SUMMARY
 ----------------------------------------------------------------------------------------------------------------------------------------------------------------
                                OUTER      INNER  BACKTRACK  BACKTRACK        INCOMING        OUTGOING                    STEP   MAXIMUM CHANGE MODEL-(CELLID) OR
 OUTER ITERATION STEP       ITERATION  ITERATION       FLAG ITERATIONS        RESIDUAL        RESIDUAL  MAXIMUM CHANGE SUCCESS             MODEL-PACKAGE-(NUMBER)
 ----------------------------------------------------------------------------------------------------------------------------------------------------------------
 Backtracking                       1                     0          0       1.4799551       1.4799551                       *                                   
 Model                              1          2                                                        1.88706807E-07       *                      2_GWE-(1,438)
 ----------------------------------------------------------------------------------------------------------------------------------------------------------------


 1 CALLS TO NUMERICAL SOLUTION IN TIME STEP 1 STRESS PERIOD 17
 2 TOTAL ITERATIONS
 
    Solving:  Stress period:    18    Time step:     1
 
1
 STRESS PERIOD NO. 18, LENGTH =   10.00000    
 ------------------------------------------
 NUMBER OF TIME STEPS = 1
 MULTIPLIER FOR DELT =     1.000
 INITIAL TIME STEP SIZE =   10.00000    

 SLN_1 OUTER ITERATION SUMMARY
 ----------------------------------------------------------------------------------------------------------
                                OUTER      INNER                    STEP   MAXIMUM CHANGE MODEL-(CELLID) OR
 OUTER ITERATION STEP       ITERATION  ITERATION  MAXIMUM CHANGE SUCCESS             MODEL-PACKAGE-(NUMBER)
 ----------------------------------------------------------------------------------------------------------
 Model                              1        145      -13.537680                             1_GWF-(1,4793)
 Model                              2          8  8.70930648E-07                              1_GWF-(1,457)
 Model                              3         14 -5.14881322E-07                             1_GWF-(1,4512)
 Model                              4          1  8.64430376E-08       *                     1_GWF-(1,4512)
 ----------------------------------------------------------------------------------------------------------


 4 CALLS TO NUMERICAL SOLUTION IN TIME STEP 1 STRESS PERIOD 18
 168 TOTAL ITERATIONS

 SLN_2 OUTER ITERATION SUMMARY
 ----------------------------------------------------------------------------------------------------------------------------------------------------------------
                                OUTER      INNER  BACKTRACK  BACKTRACK        INCOMING        OUTGOING                    STEP   MAXIMUM CHANGE MODEL-(CELLID) OR
 OUTER ITERATION STEP       ITERATION  ITERATION       FLAG ITERATIONS        RESIDUAL        RESIDUAL  MAXIMUM CHANGE SUCCESS             MODEL-PACKAGE-(NUMBER)
 ----------------------------------------------------------------------------------------------------------------------------------------------------------------
 Backtracking                       1                     0          0       26.287697       26.287697                       *                                   
 Model                              1          3                                                       -1.38848858E-05       *                     2_GWE-(1,3304)
 ----------------------------------------------------------------------------------------------------------------------------------------------------------------


 1 CALLS TO NUMERICAL SOLUTION IN TIME STEP 1 STRESS PERIOD 18
 3 TOTAL ITERATIONS
 
    Solving:  Stress period:    19    Time step:     1
 
1
 STRESS PERIOD NO. 19, LENGTH =   10.00000    
 ------------------------------------------
 NUMBER OF TIME STEPS = 1
 MULTIPLIER FOR DELT =     1.000
 INITIAL TIME STEP SIZE =   10.00000    

 SLN_1 OUTER ITERATION SUMMARY
 ----------------------------------------------------------------------------------------------------------
                                OUTER      INNER                    STEP   MAXIMUM CHANGE MODEL-(CELLID) OR
 OUTER ITERATION STEP       ITERATION  ITERATION  MAXIMUM CHANGE SUCCESS             MODEL-PACKAGE-(NUMBER)
 ----------------------------------------------------------------------------------------------------------
 Model                              1        166      -11.989001                             1_GWF-(1,2211)
 Model                              2          1 -1.74946990E-08       *                     1_GWF-(1,4263)
 ----------------------------------------------------------------------------------------------------------


 2 CALLS TO NUMERICAL SOLUTION IN TIME STEP 1 STRESS PERIOD 19
 167 TOTAL ITERATIONS

 SLN_2 OUTER ITERATION SUMMARY
 ----------------------------------------------------------------------------------------------------------------------------------------------------------------
                                OUTER      INNER  BACKTRACK  BACKTRACK        INCOMING        OUTGOING                    STEP   MAXIMUM CHANGE MODEL-(CELLID) OR
 OUTER ITERATION STEP       ITERATION  ITERATION       FLAG ITERATIONS        RESIDUAL        RESIDUAL  MAXIMUM CHANGE SUCCESS             MODEL-PACKAGE-(NUMBER)
 ----------------------------------------------------------------------------------------------------------------------------------------------------------------
 Backtracking                       1                     0          0       19.461732       19.461732                       *                                   
 Model                              1          2                                                        3.11565580E-06       *                     2_GWE-(1,3297)
 ----------------------------------------------------------------------------------------------------------------------------------------------------------------


 1 CALLS TO NUMERICAL SOLUTION IN TIME STEP 1 STRESS PERIOD 19
 2 TOTAL ITERATIONS
 
    Solving:  Stress period:    20    Time step:     1
 
1
 STRESS PERIOD NO. 20, LENGTH =   10.00000    
 ------------------------------------------
 NUMBER OF TIME STEPS = 1
 MULTIPLIER FOR DELT =     1.000
 INITIAL TIME STEP SIZE =   10.00000    

 SLN_1 OUTER ITERATION SUMMARY
 ----------------------------------------------------------------------------------------------------------
                                OUTER      INNER                    STEP   MAXIMUM CHANGE MODEL-(CELLID) OR
 OUTER ITERATION STEP       ITERATION  ITERATION  MAXIMUM CHANGE SUCCESS             MODEL-PACKAGE-(NUMBER)
 ----------------------------------------------------------------------------------------------------------
 Model                              1        148      -10.503582                             1_GWF-(1,4391)
 Model                              2          9  5.00816896E-07                              1_GWF-(1,457)
 Model                              3          5  2.15670525E-07                             1_GWF-(1,4131)
 Model                              4          1 -9.41486178E-08       *                     1_GWF-(1,4131)
 ----------------------------------------------------------------------------------------------------------


 4 CALLS TO NUMERICAL SOLUTION IN TIME STEP 1 STRESS PERIOD 20
 163 TOTAL ITERATIONS

 SLN_2 OUTER ITERATION SUMMARY
 ----------------------------------------------------------------------------------------------------------------------------------------------------------------
                                OUTER      INNER  BACKTRACK  BACKTRACK        INCOMING        OUTGOING                    STEP   MAXIMUM CHANGE MODEL-(CELLID) OR
 OUTER ITERATION STEP       ITERATION  ITERATION       FLAG ITERATIONS        RESIDUAL        RESIDUAL  MAXIMUM CHANGE SUCCESS             MODEL-PACKAGE-(NUMBER)
 ----------------------------------------------------------------------------------------------------------------------------------------------------------------
 Backtracking                       1                     0          0       34.070717       34.070717                       *                                   
 Model                              1          2                                                       -5.71621986E-06       *                     2_GWE-(1,3329)
 ----------------------------------------------------------------------------------------------------------------------------------------------------------------


 1 CALLS TO NUMERICAL SOLUTION IN TIME STEP 1 STRESS PERIOD 20
 2 TOTAL ITERATIONS
 
    Solving:  Stress period:    21    Time step:     1
 
1
 STRESS PERIOD NO. 21, LENGTH =   10.00000    
 ------------------------------------------
 NUMBER OF TIME STEPS = 1
 MULTIPLIER FOR DELT =     1.000
 INITIAL TIME STEP SIZE =   10.00000    

 SLN_1 OUTER ITERATION SUMMARY
 ----------------------------------------------------------------------------------------------------------
                                OUTER      INNER                    STEP   MAXIMUM CHANGE MODEL-(CELLID) OR
 OUTER ITERATION STEP       ITERATION  ITERATION  MAXIMUM CHANGE SUCCESS             MODEL-PACKAGE-(NUMBER)
 ----------------------------------------------------------------------------------------------------------
 Model                              1        162       14.760542                             1_GWF-(1,4857)
 Model                              2          2  2.23635197E-07                             1_GWF-(1,3697)
 Model                              3          3 -4.92258550E-07                             1_GWF-(1,3697)
 Model                              4          3  5.30167426E-07                             1_GWF-(1,3697)
 Model                              5          1 -2.76252194E-08       *                     1_GWF-(1,3697)
 ----------------------------------------------------------------------------------------------------------


 5 CALLS TO NUMERICAL SOLUTION IN TIME STEP 1 STRESS PERIOD 21
 171 TOTAL ITERATIONS

 SLN_2 OUTER ITERATION SUMMARY
 ----------------------------------------------------------------------------------------------------------------------------------------------------------------
                                OUTER      INNER  BACKTRACK  BACKTRACK        INCOMING        OUTGOING                    STEP   MAXIMUM CHANGE MODEL-(CELLID) OR
 OUTER ITERATION STEP       ITERATION  ITERATION       FLAG ITERATIONS        RESIDUAL        RESIDUAL  MAXIMUM CHANGE SUCCESS             MODEL-PACKAGE-(NUMBER)
 ----------------------------------------------------------------------------------------------------------------------------------------------------------------
 Backtracking                       1                     0          0       68099445.       68099445.                       *                                   
 Model                              1          6                                                            -23.505920                             2_GWE-(1,4857)
 Backtracking                       2                     0          0       2693847.8       2693847.8                       *                                   
 Model                              2          5                                                           -0.79888473                             2_GWE-(1,3149)
 Backtracking                       3                     0          0       359429.03       359429.03                       *                                   
 Model                              3          4                                                        7.84286216E-02                             2_GWE-(1,3465)
 Backtracking                       4                     0          0       81115.329       81115.329                       *                                   
 Model                              4          4                                                        1.85441838E-02                             2_GWE-(1,3419)
 Backtracking                       5                     0          0       20800.444       20800.444                       *                                   
 Model                              5          4                                                        3.07574314E-03                             2_GWE-(1,3420)
 Backtracking                       6                     0          0       7648.7532       7648.7532                       *                                   
 Model                              6          3                                                       -1.44609758E-03                             2_GWE-(1,3498)
 Backtracking                       7                     0          0       2987.3171       2987.3171                       *                                   
 Model                              7          3                                                       -6.63761250E-04                             2_GWE-(1,3498)
 Backtracking                       8                     0          0       989.38071       989.38071                       *                                   
 Model                              8          3                                                       -2.45729338E-04                             2_GWE-(1,3498)
 Backtracking                       9                     0          0       279.03501       279.03501                       *                                   
 Model                              9          2                                                       -7.00484159E-05       *                     2_GWE-(1,3498)
 ----------------------------------------------------------------------------------------------------------------------------------------------------------------


 9 CALLS TO NUMERICAL SOLUTION IN TIME STEP 1 STRESS PERIOD 21
 34 TOTAL ITERATIONS
 
    Solving:  Stress period:    22    Time step:     1
 
1
 STRESS PERIOD NO. 22, LENGTH =   10.00000    
 ------------------------------------------
 NUMBER OF TIME STEPS = 1
 MULTIPLIER FOR DELT =     1.000
 INITIAL TIME STEP SIZE =   10.00000    

 SLN_1 OUTER ITERATION SUMMARY
 ----------------------------------------------------------------------------------------------------------
                                OUTER      INNER                    STEP   MAXIMUM CHANGE MODEL-(CELLID) OR
 OUTER ITERATION STEP       ITERATION  ITERATION  MAXIMUM CHANGE SUCCESS             MODEL-PACKAGE-(NUMBER)
 ----------------------------------------------------------------------------------------------------------
 Model                              1        159       21.798192                             1_GWF-(1,4857)
 Model                              2          1  1.72163936E-08       *                     1_GWF-(1,4143)
 ----------------------------------------------------------------------------------------------------------


 2 CALLS TO NUMERICAL SOLUTION IN TIME STEP 1 STRESS PERIOD 22
 160 TOTAL ITERATIONS

 SLN_2 OUTER ITERATION SUMMARY
 ----------------------------------------------------------------------------------------------------------------------------------------------------------------
                                OUTER      INNER  BACKTRACK  BACKTRACK        INCOMING        OUTGOING                    STEP   MAXIMUM CHANGE MODEL-(CELLID) OR
 OUTER ITERATION STEP       ITERATION  ITERATION       FLAG ITERATIONS        RESIDUAL        RESIDUAL  MAXIMUM CHANGE SUCCESS             MODEL-PACKAGE-(NUMBER)
 ----------------------------------------------------------------------------------------------------------------------------------------------------------------
 Backtracking                       1                     0          0       36125533.       36125533.                       *                                   
 Model                              1          6                                                            -13.670145                             2_GWE-(1,3296)
 Backtracking                       2                     0          0       4953254.4       4953254.4                       *                                   
[...]
 OUTER ITERATION STEP       ITERATION  ITERATION  MAXIMUM CHANGE SUCCESS             MODEL-PACKAGE-(NUMBER)
 ----------------------------------------------------------------------------------------------------------
 Model                              1        160      -15.089364                             1_GWF-(1,4831)
 Model                              2         16  3.91398021E-06                              1_GWF-(1,452)
 Model                              3          5  1.36550284E-06                             1_GWF-(1,3587)
 Model                              4         15  6.22096195E-07                             1_GWF-(1,1402)
 Model                              5         11 -4.75846832E-07                             1_GWF-(1,3693)
 Model                              6          5 -4.75696197E-07                             1_GWF-(1,1750)
 Model                              7          5  3.47617743E-06                               1_GWF-(1,49)
 Model                              8         13 -2.50885671E-06                               1_GWF-(1,49)
 Model                              9         10 -2.66085749E-07                               1_GWF-(1,41)
 Model                             10          8 -8.59249099E-07                             1_GWF-(1,4119)
 Model                             11          3  2.66372001E-06                             1_GWF-(1,4119)
 Model                             12          3 -2.24783537E-06                             1_GWF-(1,4119)
 Model                             13          5  2.20294703E-06                             1_GWF-(1,4119)
 Model                             14          3 -2.14703300E-06                             1_GWF-(1,4119)
 Model                             15          5  1.90702053E-06                             1_GWF-(1,4119)
 Model                             16          4 -2.04747789E-06                             1_GWF-(1,4119)
 Model                             17          3  2.06142886E-06                             1_GWF-(1,4119)
 Model                             18          3 -2.09299503E-06                             1_GWF-(1,4119)
 Model                             19          3  2.20749371E-06                             1_GWF-(1,4119)
 Model                             20          2 -2.03668787E-06                             1_GWF-(1,4119)
 Model                             21          5  2.41025941E-06                             1_GWF-(1,4119)
 Model                             22          2 -2.30510602E-06                             1_GWF-(1,4119)
 Model                             23          5  2.72441162E-06                             1_GWF-(1,4119)
 Model                             24          3 -2.63972834E-06                             1_GWF-(1,4119)
 Model                             25          3  2.88545584E-06                             1_GWF-(1,4119)
 Model                             26          3 -2.84193993E-06                             1_GWF-(1,4119)
 Model                             27         15  1.25695028E-05                              1_GWF-(1,331)
 Model                             28          1  5.04473974E-09       *                     1_GWF-(1,1184)
 ----------------------------------------------------------------------------------------------------------


 28 CALLS TO NUMERICAL SOLUTION IN TIME STEP 1 STRESS PERIOD 124
 319 TOTAL ITERATIONS

 SLN_2 OUTER ITERATION SUMMARY
 ----------------------------------------------------------------------------------------------------------------------------------------------------------------
                                OUTER      INNER  BACKTRACK  BACKTRACK        INCOMING        OUTGOING                    STEP   MAXIMUM CHANGE MODEL-(CELLID) OR
 OUTER ITERATION STEP       ITERATION  ITERATION       FLAG ITERATIONS        RESIDUAL        RESIDUAL  MAXIMUM CHANGE SUCCESS             MODEL-PACKAGE-(NUMBER)
 ----------------------------------------------------------------------------------------------------------------------------------------------------------------
 Backtracking                       1                     0          0       6731691.0       6731691.0                       *                                   
 Model                              1          5                                                            0.52113010                             2_GWE-(1,4260)
 Backtracking                       2                     0          0       203617.02       203617.02                       *                                   
 Model                              2          4                                                        1.30725883E-02                             2_GWE-(1,2035)
 Backtracking                       3                     0          0       51786.866       51786.866                       *                                   
 Model                              3          4                                                       -4.22615277E-03                             2_GWE-(1,2273)
 Backtracking                       4                     0          0       17006.033       17006.033                       *                                   
 Model                              4          3                                                       -1.55465629E-03                             2_GWE-(1,2273)
 Backtracking                       5                     0          0       5453.9666       5453.9666                       *                                   
 Model                              5          3                                                       -5.48321747E-04                             2_GWE-(1,1843)
 Backtracking                       6                     0          0       1709.6440       1709.6440                       *                                   
 Model                              6          3                                                       -1.68164101E-04                             2_GWE-(1,1843)
 Backtracking                       7                     0          0       533.12432       533.12432                       *                                   
 Model                              7          2                                                        5.24184916E-05       *                     2_GWE-(1,3972)
 ----------------------------------------------------------------------------------------------------------------------------------------------------------------


 7 CALLS TO NUMERICAL SOLUTION IN TIME STEP 1 STRESS PERIOD 124
 24 TOTAL ITERATIONS
 
    Solving:  Stress period:   125    Time step:     1
 
1
 STRESS PERIOD NO. 125, LENGTH =   10.00000    
 ------------------------------------------
 NUMBER OF TIME STEPS = 1
 MULTIPLIER FOR DELT =     1.000
 INITIAL TIME STEP SIZE =   10.00000    

 SLN_1 OUTER ITERATION SUMMARY
 ----------------------------------------------------------------------------------------------------------
                                OUTER      INNER                    STEP   MAXIMUM CHANGE MODEL-(CELLID) OR
 OUTER ITERATION STEP       ITERATION  ITERATION  MAXIMUM CHANGE SUCCESS             MODEL-PACKAGE-(NUMBER)
 ----------------------------------------------------------------------------------------------------------
 Model                              1        168      -14.206319                             1_GWF-(1,4768)
 Model                              2          1  1.77351467E-10       *                      1_GWF-(1,159)
 ----------------------------------------------------------------------------------------------------------


 2 CALLS TO NUMERICAL SOLUTION IN TIME STEP 1 STRESS PERIOD 125
 169 TOTAL ITERATIONS

 SLN_2 OUTER ITERATION SUMMARY
 ----------------------------------------------------------------------------------------------------------------------------------------------------------------
                                OUTER      INNER  BACKTRACK  BACKTRACK        INCOMING        OUTGOING                    STEP   MAXIMUM CHANGE MODEL-(CELLID) OR
 OUTER ITERATION STEP       ITERATION  ITERATION       FLAG ITERATIONS        RESIDUAL        RESIDUAL  MAXIMUM CHANGE SUCCESS             MODEL-PACKAGE-(NUMBER)
 ----------------------------------------------------------------------------------------------------------------------------------------------------------------
 Backtracking                       1                     0          0       5710984.2       5710984.2                       *                                   
 Model                              1          4                                                            0.43521818                             2_GWE-(1,4699)
 Backtracking                       2                     0          0       75819.741       75819.741                       *                                   
 Model                              2          4                                                        7.50395128E-03                             2_GWE-(1,1232)
 Backtracking                       3                     0          0       11181.076       11181.076                       *                                   
 Model                              3          3                                                       -1.56373481E-03                             2_GWE-(1,3901)
 Backtracking                       4                     0          0       2559.7131       2559.7131                       *                                   
 Model                              4          3                                                       -4.29858846E-04                             2_GWE-(1,3901)
 Backtracking                       5                     0          0       417.59208       417.59208                       *                                   
 Model                              5          2                                                       -8.39864953E-05       *                     2_GWE-(1,3901)
 ----------------------------------------------------------------------------------------------------------------------------------------------------------------


 5 CALLS TO NUMERICAL SOLUTION IN TIME STEP 1 STRESS PERIOD 125
 16 TOTAL ITERATIONS
 
    Solving:  Stress period:   126    Time step:     1
 
1
 STRESS PERIOD NO. 126, LENGTH =   10.00000    
 ------------------------------------------
 NUMBER OF TIME STEPS = 1
 MULTIPLIER FOR DELT =     1.000
 INITIAL TIME STEP SIZE =   10.00000    

 SLN_1 OUTER ITERATION SUMMARY
 ----------------------------------------------------------------------------------------------------------
                                OUTER      INNER                    STEP   MAXIMUM CHANGE MODEL-(CELLID) OR
 OUTER ITERATION STEP       ITERATION  ITERATION  MAXIMUM CHANGE SUCCESS             MODEL-PACKAGE-(NUMBER)
 ----------------------------------------------------------------------------------------------------------
 Model                              1        151      -12.927962                             1_GWF-(1,4793)
 Model                              2          3 -4.35185143E-07                             1_GWF-(1,4874)
 Model                              3         17  1.07906146E-06                              1_GWF-(1,457)
 Model                              4          8 -5.91969865E-07                             1_GWF-(1,4694)
 Model                              5          8  1.86773377E-07                             1_GWF-(1,4694)
 Model                              6          1  6.07390120E-08       *                      1_GWF-(1,674)
 ----------------------------------------------------------------------------------------------------------


 6 CALLS TO NUMERICAL SOLUTION IN TIME STEP 1 STRESS PERIOD 126
 188 TOTAL ITERATIONS

 SLN_2 OUTER ITERATION SUMMARY
 ----------------------------------------------------------------------------------------------------------------------------------------------------------------
                                OUTER      INNER  BACKTRACK  BACKTRACK        INCOMING        OUTGOING                    STEP   MAXIMUM CHANGE MODEL-(CELLID) OR
 OUTER ITERATION STEP       ITERATION  ITERATION       FLAG ITERATIONS        RESIDUAL        RESIDUAL  MAXIMUM CHANGE SUCCESS             MODEL-PACKAGE-(NUMBER)
 ----------------------------------------------------------------------------------------------------------------------------------------------------------------
 Backtracking                       1                     0          0       4268436.3       4268436.3                       *                                   
 Model                              1          5                                                            0.37331563                             2_GWE-(1,4699)
 Backtracking                       2                     0          0       49487.077       49487.077                       *                                   
 Model                              2          3                                                        5.64536749E-03                             2_GWE-(1,1817)
 Backtracking                       3                     0          0       6012.7430       6012.7430                       *                                   
 Model                              3          3                                                       -7.51901165E-04                             2_GWE-(1,2761)
 Backtracking                       4                     0          0       1329.5350       1329.5350                       *                                   
 Model                              4          3                                                       -2.04010294E-04                             2_GWE-(1,2761)
 Backtracking                       5                     0          0       216.04205       216.04205                       *                                   
 Model                              5          2                                                       -3.82063287E-05       *                     2_GWE-(1,2761)
 ----------------------------------------------------------------------------------------------------------------------------------------------------------------


 5 CALLS TO NUMERICAL SOLUTION IN TIME STEP 1 STRESS PERIOD 126
 16 TOTAL ITERATIONS
 
    Solving:  Stress period:   127    Time step:     1
 
1
 STRESS PERIOD NO. 127, LENGTH =   10.00000    
 ------------------------------------------
 NUMBER OF TIME STEPS = 1
 MULTIPLIER FOR DELT =     1.000
 INITIAL TIME STEP SIZE =   10.00000    

 SLN_1 OUTER ITERATION SUMMARY
 ----------------------------------------------------------------------------------------------------------
                                OUTER      INNER                    STEP   MAXIMUM CHANGE MODEL-(CELLID) OR
 OUTER ITERATION STEP       ITERATION  ITERATION  MAXIMUM CHANGE SUCCESS             MODEL-PACKAGE-(NUMBER)
 ----------------------------------------------------------------------------------------------------------
 Model                              1        153      -11.460379                             1_GWF-(1,4793)
 Model                              2          9  8.78091555E-07                             1_GWF-(1,4105)
 Model                              3         12  3.83279712E-07                               1_GWF-(1,52)
 Model                              4          6 -6.58705858E-07                               1_GWF-(1,93)
 Model                              5          7 -1.16304136E-07                             1_GWF-(1,4843)
 Model                              6          7  3.17171384E-07                             1_GWF-(1,4441)
 Model                              7          7 -3.68520887E-07                             1_GWF-(1,4441)
 Model                              8          7 -2.05336391E-07                             1_GWF-(1,2212)
 Model                              9          5  5.54876010E-07                             1_GWF-(1,4674)
 Model                             10          5 -5.80468395E-07                             1_GWF-(1,4674)
 Model                             11          2  1.03381478E-06                             1_GWF-(1,4674)
 Model                             12         12 -9.60109901E-07                             1_GWF-(1,4674)
 Model                             13          4 -3.03893330E-07                             1_GWF-(1,4441)
 Model                             14          1 -7.42550128E-08       *                     1_GWF-(1,4105)
 ----------------------------------------------------------------------------------------------------------


 14 CALLS TO NUMERICAL SOLUTION IN TIME STEP 1 STRESS PERIOD 127
 237 TOTAL ITERATIONS

 SLN_2 OUTER ITERATION SUMMARY
 ----------------------------------------------------------------------------------------------------------------------------------------------------------------
                                OUTER      INNER  BACKTRACK  BACKTRACK        INCOMING        OUTGOING                    STEP   MAXIMUM CHANGE MODEL-(CELLID) OR
 OUTER ITERATION STEP       ITERATION  ITERATION       FLAG ITERATIONS        RESIDUAL        RESIDUAL  MAXIMUM CHANGE SUCCESS             MODEL-PACKAGE-(NUMBER)
 ----------------------------------------------------------------------------------------------------------------------------------------------------------------
 Backtracking                       1                     0          0       3612040.6       3612040.6                       *                                   
 Model                              1          5                                                            0.32352365                             2_GWE-(1,4699)
 Backtracking                       2                     0          0       37557.405       37557.405                       *                                   
 Model                              2          4                                                        5.03711723E-03                             2_GWE-(1,3886)
 Backtracking                       3                     0          0       5114.2498       5114.2498                       *                                   
 Model                              3          3                                                       -1.29071894E-03                             2_GWE-(1,3957)
 Backtracking                       4                     0          0       1152.5976       1152.5976                       *                                   
 Model                              4          3                                                       -3.21197839E-04                             2_GWE-(1,3957)
 Backtracking                       5                     0          0       183.52646       183.52646                       *                                   
 Model                              5          3                                                       -5.45689267E-05       *                     2_GWE-(1,3957)
 ----------------------------------------------------------------------------------------------------------------------------------------------------------------


 5 CALLS TO NUMERICAL SOLUTION IN TIME STEP 1 STRESS PERIOD 127
 18 TOTAL ITERATIONS

 MEMORY MANAGER TOTAL STORAGE BY DATA TYPE, IN MEGABYTES
 -------------------------------
                    ALLOCATED   
 DATA TYPE           MEMORY     
 -------------------------------
 Character        9.70400000E-03
 Logical          4.80000000E-05
 Integer          2.5000680     
 Real             6.0491760     
 -------------------------------
 Total            8.5589960     
 Virtual          0.0000000     
 -------------------------------


 
 Run end date and time (yyyy/mm/dd hh:mm:ss): 2024/05/31 13:14:02
 Elapsed run time: 42.362 Seconds
 Normal termination of simulation.
